dayahead/artifacts/v16_2/Generated_ThreePhase_PCC_v4.dss
! Auto-generated compiled-topology 3-phase PCC candidate v3
! Generated 2026-07-31T05:11:35.498315+00:00

New Transformer.IDC_IDC01_TX Phases=3 Windings=2 XHL=5.75 %R=0.8 %NoLoadLoss=0 %Imag=0
~ Buses=[149.1.2.3 idc_idc01_pcc.1.2.3] Conns=[wye wye]
~ kVs=[4.16 0.48] kVAs=[1500 1500]
New Load.IDC_IDC01 Bus1=idc_idc01_pcc.1.2.3 Phases=3 Conn=wye kV=0.48 kW=0 kvar=0 Model=1 Vminpu=0.85 Vmaxpu=1.15

New Transformer.MESS_IDC01_TX Phases=3 Windings=2 XHL=5.75 %R=0.8 %NoLoadLoss=0 %Imag=0
~ Buses=[149.1.2.3 mess_idc01_pcc.1.2.3] Conns=[wye wye]
~ kVs=[4.16 0.48] kVAs=[750 750]
New Generator.MESS_DIS_IDC01 Bus1=mess_idc01_pcc.1.2.3 Phases=3 Conn=wye kV=0.48 kW=0 kvar=0 Model=1 Vminpu=0.85 Vmaxpu=1.15
New Load.MESS_CHG_IDC01 Bus1=mess_idc01_pcc.1.2.3 Phases=3 Conn=wye kV=0.48 kW=0 kvar=0 Model=1 Vminpu=0.85 Vmaxpu=1.15

New Transformer.IDC_IDC02_TX Phases=3 Windings=2 XHL=5.75 %R=0.8 %NoLoadLoss=0 %Imag=0
~ Buses=[300_open.1.2.3 idc_idc02_pcc.1.2.3] Conns=[wye wye]
~ kVs=[4.16 0.48] kVAs=[1500 1500]
New Load.IDC_IDC02 Bus1=idc_idc02_pcc.1.2.3 Phases=3 Conn=wye kV=0.48 kW=0 kvar=0 Model=1 Vminpu=0.85 Vmaxpu=1.15

New Transformer.MESS_IDC02_TX Phases=3 Windings=2 XHL=5.75 %R=0.8 %NoLoadLoss=0 %Imag=0
~ Buses=[300_open.1.2.3 mess_idc02_pcc.1.2.3] Conns=[wye wye]
~ kVs=[4.16 0.48] kVAs=[750 750]
New Generator.MESS_DIS_IDC02 Bus1=mess_idc02_pcc.1.2.3 Phases=3 Conn=wye kV=0.48 kW=0 kvar=0 Model=1 Vminpu=0.85 Vmaxpu=1.15
New Load.MESS_CHG_IDC02 Bus1=mess_idc02_pcc.1.2.3 Phases=3 Conn=wye kV=0.48 kW=0 kvar=0 Model=1 Vminpu=0.85 Vmaxpu=1.15

New Transformer.IDC_IDC03_TX Phases=3 Windings=2 XHL=5.75 %R=0.8 %NoLoadLoss=0 %Imag=0
~ Buses=[35.1.2.3 idc_idc03_pcc.1.2.3] Conns=[wye wye]
~ kVs=[4.16 0.48] kVAs=[1500 1500]
New Load.IDC_IDC03 Bus1=idc_idc03_pcc.1.2.3 Phases=3 Conn=wye kV=0.48 kW=0 kvar=0 Model=1 Vminpu=0.85 Vmaxpu=1.15

New Transformer.MESS_IDC03_TX Phases=3 Windings=2 XHL=5.75 %R=0.8 %NoLoadLoss=0 %Imag=0
~ Buses=[35.1.2.3 mess_idc03_pcc.1.2.3] Conns=[wye wye]
~ kVs=[4.16 0.48] kVAs=[750 750]
New Generator.MESS_DIS_IDC03 Bus1=mess_idc03_pcc.1.2.3 Phases=3 Conn=wye kV=0.48 kW=0 kvar=0 Model=1 Vminpu=0.85 Vmaxpu=1.15
New Load.MESS_CHG_IDC03 Bus1=mess_idc03_pcc.1.2.3 Phases=3 Conn=wye kV=0.48 kW=0 kvar=0 Model=1 Vminpu=0.85 Vmaxpu=1.15

New Transformer.IDC_IDC04_TX Phases=3 Windings=2 XHL=5.75 %R=0.8 %NoLoadLoss=0 %Imag=0
~ Buses=[50.1.2.3 idc_idc04_pcc.1.2.3] Conns=[wye wye]
~ kVs=[4.16 0.48] kVAs=[1500 1500]
New Load.IDC_IDC04 Bus1=idc_idc04_pcc.1.2.3 Phases=3 Conn=wye kV=0.48 kW=0 kvar=0 Model=1 Vminpu=0.85 Vmaxpu=1.15

New Transformer.MESS_IDC04_TX Phases=3 Windings=2 XHL=5.75 %R=0.8 %NoLoadLoss=0 %Imag=0
~ Buses=[50.1.2.3 mess_idc04_pcc.1.2.3] Conns=[wye wye]
~ kVs=[4.16 0.48] kVAs=[750 750]
New Generator.MESS_DIS_IDC04 Bus1=mess_idc04_pcc.1.2.3 Phases=3 Conn=wye kV=0.48 kW=0 kvar=0 Model=1 Vminpu=0.85 Vmaxpu=1.15
New Load.MESS_CHG_IDC04 Bus1=mess_idc04_pcc.1.2.3 Phases=3 Conn=wye kV=0.48 kW=0 kvar=0 Model=1 Vminpu=0.85 Vmaxpu=1.15

New Transformer.IDC_IDC05_TX Phases=3 Windings=2 XHL=5.75 %R=0.8 %NoLoadLoss=0 %Imag=0
~ Buses=[61s.1.2.3 idc_idc05_pcc.1.2.3] Conns=[wye wye]
~ kVs=[4.16 0.48] kVAs=[1500 1500]
New Load.IDC_IDC05 Bus1=idc_idc05_pcc.1.2.3 Phases=3 Conn=wye kV=0.48 kW=0 kvar=0 Model=1 Vminpu=0.85 Vmaxpu=1.15

New Transformer.MESS_IDC05_TX Phases=3 Windings=2 XHL=5.75 %R=0.8 %NoLoadLoss=0 %Imag=0
~ Buses=[61s.1.2.3 mess_idc05_pcc.1.2.3] Conns=[wye wye]
~ kVs=[4.16 0.48] kVAs=[750 750]
New Generator.MESS_DIS_IDC05 Bus1=mess_idc05_pcc.1.2.3 Phases=3 Conn=wye kV=0.48 kW=0 kvar=0 Model=1 Vminpu=0.85 Vmaxpu=1.15
New Load.MESS_CHG_IDC05 Bus1=mess_idc05_pcc.1.2.3 Phases=3 Conn=wye kV=0.48 kW=0 kvar=0 Model=1 Vminpu=0.85 Vmaxpu=1.15

New Transformer.IDC_IDC06_TX Phases=3 Windings=2 XHL=5.75 %R=0.8 %NoLoadLoss=0 %Imag=0
~ Buses=[48.1.2.3 idc_idc06_pcc.1.2.3] Conns=[wye wye]
~ kVs=[4.16 0.48] kVAs=[1500 1500]
New Load.IDC_IDC06 Bus1=idc_idc06_pcc.1.2.3 Phases=3 Conn=wye kV=0.48 kW=0 kvar=0 Model=1 Vminpu=0.85 Vmaxpu=1.15

New Transformer.MESS_IDC06_TX Phases=3 Windings=2 XHL=5.75 %R=0.8 %NoLoadLoss=0 %Imag=0
~ Buses=[48.1.2.3 mess_idc06_pcc.1.2.3] Conns=[wye wye]
~ kVs=[4.16 0.48] kVAs=[750 750]
New Generator.MESS_DIS_IDC06 Bus1=mess_idc06_pcc.1.2.3 Phases=3 Conn=wye kV=0.48 kW=0 kvar=0 Model=1 Vminpu=0.85 Vmaxpu=1.15
New Load.MESS_CHG_IDC06 Bus1=mess_idc06_pcc.1.2.3 Phases=3 Conn=wye kV=0.48 kW=0 kvar=0 Model=1 Vminpu=0.85 Vmaxpu=1.15

New Transformer.IDC_IDC07_TX Phases=3 Windings=2 XHL=5.75 %R=0.8 %NoLoadLoss=0 %Imag=0
~ Buses=[250.1.2.3 idc_idc07_pcc.1.2.3] Conns=[wye wye]
~ kVs=[4.16 0.48] kVAs=[1500 1500]
New Load.IDC_IDC07 Bus1=idc_idc07_pcc.1.2.3 Phases=3 Conn=wye kV=0.48 kW=0 kvar=0 Model=1 Vminpu=0.85 Vmaxpu=1.15

New Transformer.MESS_IDC07_TX Phases=3 Windings=2 XHL=5.75 %R=0.8 %NoLoadLoss=0 %Imag=0
~ Buses=[250.1.2.3 mess_idc07_pcc.1.2.3] Conns=[wye wye]
~ kVs=[4.16 0.48] kVAs=[750 750]
New Generator.MESS_DIS_IDC07 Bus1=mess_idc07_pcc.1.2.3 Phases=3 Conn=wye kV=0.48 kW=0 kvar=0 Model=1 Vminpu=0.85 Vmaxpu=1.15
New Load.MESS_CHG_IDC07 Bus1=mess_idc07_pcc.1.2.3 Phases=3 Conn=wye kV=0.48 kW=0 kvar=0 Model=1 Vminpu=0.85 Vmaxpu=1.15

New Transformer.IDC_IDC08_TX Phases=3 Windings=2 XHL=5.75 %R=0.8 %NoLoadLoss=0 %Imag=0
~ Buses=[21.1.2.3 idc_idc08_pcc.1.2.3] Conns=[wye wye]
~ kVs=[4.16 0.48] kVAs=[1500 1500]
New Load.IDC_IDC08 Bus1=idc_idc08_pcc.1.2.3 Phases=3 Conn=wye kV=0.48 kW=0 kvar=0 Model=1 Vminpu=0.85 Vmaxpu=1.15

New Transformer.MESS_IDC08_TX Phases=3 Windings=2 XHL=5.75 %R=0.8 %NoLoadLoss=0 %Imag=0
~ Buses=[21.1.2.3 mess_idc08_pcc.1.2.3] Conns=[wye wye]
~ kVs=[4.16 0.48] kVAs=[750 750]
New Generator.MESS_DIS_IDC08 Bus1=mess_idc08_pcc.1.2.3 Phases=3 Conn=wye kV=0.48 kW=0 kvar=0 Model=1 Vminpu=0.85 Vmaxpu=1.15
New Load.MESS_CHG_IDC08 Bus1=mess_idc08_pcc.1.2.3 Phases=3 Conn=wye kV=0.48 kW=0 kvar=0 Model=1 Vminpu=0.85 Vmaxpu=1.15

New Transformer.IDC_IDC09_TX Phases=3 Windings=2 XHL=5.75 %R=0.8 %NoLoadLoss=0 %Imag=0
~ Buses=[152.1.2.3 idc_idc09_pcc.1.2.3] Conns=[wye wye]
~ kVs=[4.16 0.48] kVAs=[1500 1500]
New Load.IDC_IDC09 Bus1=idc_idc09_pcc.1.2.3 Phases=3 Conn=wye kV=0.48 kW=0 kvar=0 Model=1 Vminpu=0.85 Vmaxpu=1.15

New Transformer.MESS_IDC09_TX Phases=3 Windings=2 XHL=5.75 %R=0.8 %NoLoadLoss=0 %Imag=0
~ Buses=[152.1.2.3 mess_idc09_pcc.1.2.3] Conns=[wye wye]
~ kVs=[4.16 0.48] kVAs=[750 750]
New Generator.MESS_DIS_IDC09 Bus1=mess_idc09_pcc.1.2.3 Phases=3 Conn=wye kV=0.48 kW=0 kvar=0 Model=1 Vminpu=0.85 Vmaxpu=1.15
New Load.MESS_CHG_IDC09 Bus1=mess_idc09_pcc.1.2.3 Phases=3 Conn=wye kV=0.48 kW=0 kvar=0 Model=1 Vminpu=0.85 Vmaxpu=1.15

New Transformer.IDC_IDC10_TX Phases=3 Windings=2 XHL=5.75 %R=0.8 %NoLoadLoss=0 %Imag=0
~ Buses=[81.1.2.3 idc_idc10_pcc.1.2.3] Conns=[wye wye]
~ kVs=[4.16 0.48] kVAs=[1500 1500]
New Load.IDC_IDC10 Bus1=idc_idc10_pcc.1.2.3 Phases=3 Conn=wye kV=0.48 kW=0 kvar=0 Model=1 Vminpu=0.85 Vmaxpu=1.15

New Transformer.MESS_IDC10_TX Phases=3 Windings=2 XHL=5.75 %R=0.8 %NoLoadLoss=0 %Imag=0
~ Buses=[81.1.2.3 mess_idc10_pcc.1.2.3] Conns=[wye wye]
~ kVs=[4.16 0.48] kVAs=[750 750]
New Generator.MESS_DIS_IDC10 Bus1=mess_idc10_pcc.1.2.3 Phases=3 Conn=wye kV=0.48 kW=0 kvar=0 Model=1 Vminpu=0.85 Vmaxpu=1.15
New Load.MESS_CHG_IDC10 Bus1=mess_idc10_pcc.1.2.3 Phases=3 Conn=wye kV=0.48 kW=0 kvar=0 Model=1 Vminpu=0.85 Vmaxpu=1.15

New Transformer.IDC_IDC11_TX Phases=3 Windings=2 XHL=5.75 %R=0.8 %NoLoadLoss=0 %Imag=0
~ Buses=[79.1.2.3 idc_idc11_pcc.1.2.3] Conns=[wye wye]
~ kVs=[4.16 0.48] kVAs=[1500 1500]
New Load.IDC_IDC11 Bus1=idc_idc11_pcc.1.2.3 Phases=3 Conn=wye kV=0.48 kW=0 kvar=0 Model=1 Vminpu=0.85 Vmaxpu=1.15

New Transformer.MESS_IDC11_TX Phases=3 Windings=2 XHL=5.75 %R=0.8 %NoLoadLoss=0 %Imag=0
~ Buses=[79.1.2.3 mess_idc11_pcc.1.2.3] Conns=[wye wye]
~ kVs=[4.16 0.48] kVAs=[750 750]
New Generator.MESS_DIS_IDC11 Bus1=mess_idc11_pcc.1.2.3 Phases=3 Conn=wye kV=0.48 kW=0 kvar=0 Model=1 Vminpu=0.85 Vmaxpu=1.15
New Load.MESS_CHG_IDC11 Bus1=mess_idc11_pcc.1.2.3 Phases=3 Conn=wye kV=0.48 kW=0 kvar=0 Model=1 Vminpu=0.85 Vmaxpu=1.15

New Transformer.IDC_IDC12_TX Phases=3 Windings=2 XHL=5.75 %R=0.8 %NoLoadLoss=0 %Imag=0
~ Buses=[108.1.2.3 idc_idc12_pcc.1.2.3] Conns=[wye wye]
~ kVs=[4.16 0.48] kVAs=[1500 1500]
New Load.IDC_IDC12 Bus1=idc_idc12_pcc.1.2.3 Phases=3 Conn=wye kV=0.48 kW=0 kvar=0 Model=1 Vminpu=0.85 Vmaxpu=1.15

New Transformer.MESS_IDC12_TX Phases=3 Windings=2 XHL=5.75 %R=0.8 %NoLoadLoss=0 %Imag=0
~ Buses=[108.1.2.3 mess_idc12_pcc.1.2.3] Conns=[wye wye]
~ kVs=[4.16 0.48] kVAs=[750 750]
New Generator.MESS_DIS_IDC12 Bus1=mess_idc12_pcc.1.2.3 Phases=3 Conn=wye kV=0.48 kW=0 kvar=0 Model=1 Vminpu=0.85 Vmaxpu=1.15
New Load.MESS_CHG_IDC12 Bus1=mess_idc12_pcc.1.2.3 Phases=3 Conn=wye kV=0.48 kW=0 kvar=0 Model=1 Vminpu=0.85 Vmaxpu=1.15

New Transformer.MESS_STA01_TX Phases=3 Windings=2 XHL=5.75 %R=0.8 %NoLoadLoss=0 %Imag=0
~ Buses=[28.1.2.3 mess_sta01_pcc.1.2.3] Conns=[wye wye]
~ kVs=[4.16 0.48] kVAs=[750 750]
New Generator.MESS_DIS_STA01 Bus1=mess_sta01_pcc.1.2.3 Phases=3 Conn=wye kV=0.48 kW=0 kvar=0 Model=1 Vminpu=0.85 Vmaxpu=1.15
New Load.MESS_CHG_STA01 Bus1=mess_sta01_pcc.1.2.3 Phases=3 Conn=wye kV=0.48 kW=0 kvar=0 Model=1 Vminpu=0.85 Vmaxpu=1.15

New Transformer.MESS_STA02_TX Phases=3 Windings=2 XHL=5.75 %R=0.8 %NoLoadLoss=0 %Imag=0
~ Buses=[54.1.2.3 mess_sta02_pcc.1.2.3] Conns=[wye wye]
~ kVs=[4.16 0.48] kVAs=[750 750]
New Generator.MESS_DIS_STA02 Bus1=mess_sta02_pcc.1.2.3 Phases=3 Conn=wye kV=0.48 kW=0 kvar=0 Model=1 Vminpu=0.85 Vmaxpu=1.15
New Load.MESS_CHG_STA02 Bus1=mess_sta02_pcc.1.2.3 Phases=3 Conn=wye kV=0.48 kW=0 kvar=0 Model=1 Vminpu=0.85 Vmaxpu=1.15

New Transformer.MESS_STA03_TX Phases=3 Windings=2 XHL=5.75 %R=0.8 %NoLoadLoss=0 %Imag=0
~ Buses=[95.1.2.3 mess_sta03_pcc.1.2.3] Conns=[wye wye]
~ kVs=[4.16 0.48] kVAs=[750 750]
New Generator.MESS_DIS_STA03 Bus1=mess_sta03_pcc.1.2.3 Phases=3 Conn=wye kV=0.48 kW=0 kvar=0 Model=1 Vminpu=0.85 Vmaxpu=1.15
New Load.MESS_CHG_STA03 Bus1=mess_sta03_pcc.1.2.3 Phases=3 Conn=wye kV=0.48 kW=0 kvar=0 Model=1 Vminpu=0.85 Vmaxpu=1.15

New Transformer.MESS_STA04_TX Phases=3 Windings=2 XHL=5.75 %R=0.8 %NoLoadLoss=0 %Imag=0
~ Buses=[64.1.2.3 mess_sta04_pcc.1.2.3] Conns=[wye wye]
~ kVs=[4.16 0.48] kVAs=[750 750]
New Generator.MESS_DIS_STA04 Bus1=mess_sta04_pcc.1.2.3 Phases=3 Conn=wye kV=0.48 kW=0 kvar=0 Model=1 Vminpu=0.85 Vmaxpu=1.15
New Load.MESS_CHG_STA04 Bus1=mess_sta04_pcc.1.2.3 Phases=3 Conn=wye kV=0.48 kW=0 kvar=0 Model=1 Vminpu=0.85 Vmaxpu=1.15

New Transformer.MESS_STA05_TX Phases=3 Windings=2 XHL=5.75 %R=0.8 %NoLoadLoss=0 %Imag=0
~ Buses=[62.1.2.3 mess_sta05_pcc.1.2.3] Conns=[wye wye]
~ kVs=[4.16 0.48] kVAs=[750 750]
New Generator.MESS_DIS_STA05 Bus1=mess_sta05_pcc.1.2.3 Phases=3 Conn=wye kV=0.48 kW=0 kvar=0 Model=1 Vminpu=0.85 Vmaxpu=1.15
New Load.MESS_CHG_STA05 Bus1=mess_sta05_pcc.1.2.3 Phases=3 Conn=wye kV=0.48 kW=0 kvar=0 Model=1 Vminpu=0.85 Vmaxpu=1.15

New Transformer.MESS_STA06_TX Phases=3 Windings=2 XHL=5.75 %R=0.8 %NoLoadLoss=0 %Imag=0
~ Buses=[98.1.2.3 mess_sta06_pcc.1.2.3] Conns=[wye wye]
~ kVs=[4.16 0.48] kVAs=[750 750]
New Generator.MESS_DIS_STA06 Bus1=mess_sta06_pcc.1.2.3 Phases=3 Conn=wye kV=0.48 kW=0 kvar=0 Model=1 Vminpu=0.85 Vmaxpu=1.15
New Load.MESS_CHG_STA06 Bus1=mess_sta06_pcc.1.2.3 Phases=3 Conn=wye kV=0.48 kW=0 kvar=0 Model=1 Vminpu=0.85 Vmaxpu=1.15

New Transformer.MESS_STA07_TX Phases=3 Windings=2 XHL=5.75 %R=0.8 %NoLoadLoss=0 %Imag=0
~ Buses=[100.1.2.3 mess_sta07_pcc.1.2.3] Conns=[wye wye]
~ kVs=[4.16 0.48] kVAs=[750 750]
New Generator.MESS_DIS_STA07 Bus1=mess_sta07_pcc.1.2.3 Phases=3 Conn=wye kV=0.48 kW=0 kvar=0 Model=1 Vminpu=0.85 Vmaxpu=1.15
New Load.MESS_CHG_STA07 Bus1=mess_sta07_pcc.1.2.3 Phases=3 Conn=wye kV=0.48 kW=0 kvar=0 Model=1 Vminpu=0.85 Vmaxpu=1.15

New Transformer.MESS_STA08_TX Phases=3 Windings=2 XHL=5.75 %R=0.8 %NoLoadLoss=0 %Imag=0
~ Buses=[67.1.2.3 mess_sta08_pcc.1.2.3] Conns=[wye wye]
~ kVs=[4.16 0.48] kVAs=[750 750]
New Generator.MESS_DIS_STA08 Bus1=mess_sta08_pcc.1.2.3 Phases=3 Conn=wye kV=0.48 kW=0 kvar=0 Model=1 Vminpu=0.85 Vmaxpu=1.15
New Load.MESS_CHG_STA08 Bus1=mess_sta08_pcc.1.2.3 Phases=3 Conn=wye kV=0.48 kW=0 kvar=0 Model=1 Vminpu=0.85 Vmaxpu=1.15

New Transformer.MESS_STA09_TX Phases=3 Windings=2 XHL=5.75 %R=0.8 %NoLoadLoss=0 %Imag=0
~ Buses=[80.1.2.3 mess_sta09_pcc.1.2.3] Conns=[wye wye]
~ kVs=[4.16 0.48] kVAs=[750 750]
New Generator.MESS_DIS_STA09 Bus1=mess_sta09_pcc.1.2.3 Phases=3 Conn=wye kV=0.48 kW=0 kvar=0 Model=1 Vminpu=0.85 Vmaxpu=1.15
New Load.MESS_CHG_STA09 Bus1=mess_sta09_pcc.1.2.3 Phases=3 Conn=wye kV=0.48 kW=0 kvar=0 Model=1 Vminpu=0.85 Vmaxpu=1.15

New Transformer.MESS_STA10_TX Phases=3 Windings=2 XHL=5.75 %R=0.8 %NoLoadLoss=0 %Imag=0
~ Buses=[91.1.2.3 mess_sta10_pcc.1.2.3] Conns=[wye wye]
~ kVs=[4.16 0.48] kVAs=[750 750]
New Generator.MESS_DIS_STA10 Bus1=mess_sta10_pcc.1.2.3 Phases=3 Conn=wye kV=0.48 kW=0 kvar=0 Model=1 Vminpu=0.85 Vmaxpu=1.15
New Load.MESS_CHG_STA10 Bus1=mess_sta10_pcc.1.2.3 Phases=3 Conn=wye kV=0.48 kW=0 kvar=0 Model=1 Vminpu=0.85 Vmaxpu=1.15

New Transformer.MESS_STA11_TX Phases=3 Windings=2 XHL=5.75 %R=0.8 %NoLoadLoss=0 %Imag=0
~ Buses=[87.1.2.3 mess_sta11_pcc.1.2.3] Conns=[wye wye]
~ kVs=[4.16 0.48] kVAs=[750 750]
New Generator.MESS_DIS_STA11 Bus1=mess_sta11_pcc.1.2.3 Phases=3 Conn=wye kV=0.48 kW=0 kvar=0 Model=1 Vminpu=0.85 Vmaxpu=1.15
New Load.MESS_CHG_STA11 Bus1=mess_sta11_pcc.1.2.3 Phases=3 Conn=wye kV=0.48 kW=0 kvar=0 Model=1 Vminpu=0.85 Vmaxpu=1.15

New Transformer.MESS_STA12_TX Phases=3 Windings=2 XHL=5.75 %R=0.8 %NoLoadLoss=0 %Imag=0
~ Buses=[83.1.2.3 mess_sta12_pcc.1.2.3] Conns=[wye wye]
~ kVs=[4.16 0.48] kVAs=[750 750]
New Generator.MESS_DIS_STA12 Bus1=mess_sta12_pcc.1.2.3 Phases=3 Conn=wye kV=0.48 kW=0 kvar=0 Model=1 Vminpu=0.85 Vmaxpu=1.15
New Load.MESS_CHG_STA12 Bus1=mess_sta12_pcc.1.2.3 Phases=3 Conn=wye kV=0.48 kW=0 kvar=0 Model=1 Vminpu=0.85 Vmaxpu=1.15

